* C:\Users\shifa\OneDrive\Desktop\CSE260_P\Practical Schematic.asc
* Generated by LTspice 26.0.1 for Windows.
V§C N002 0 0
V§B N001 0 0
V§A LED8 0 1
V§D N003 0 1
A+B LED8 N001 0 0 0 0 LED4 0 OR
A+B+C LED4 0 N002 0 0 0 LED2 0 OR
A+B+C+D 0 LED2 0 N003 0 0 LED1 0 OR
A§CD 0 N002 0 N003 0 0 N004 0 AND
A+B+CD 0 LED4 0 N004 0 0 LED3 0 OR
A§C+D 0 N002 0 N003 0 0 N005 0 OR
A§B[C+D] 0 N005 0 N001 0 0 N006 0 AND
A+B[C+D] 0 N006 0 LED8 0 0 LED5 0 OR
A+BC 0 N007 0 LED8 0 0 LED6 0 OR
A§BC 0 N001 0 N002 0 0 N007 0 AND
A§BCD 0 N007 0 N003 0 0 N008 0 AND
A+BCD 0 LED8 0 N008 0 0 LED7 0 OR
A[C+D] 0 LED8 0 N005 0 0 LED9 0 AND
A§BD_NOT N009 0 0 0 N012 0 N010 0 AND
A§B_NOT_C_D_NOT N010 0 0 0 N002 0 N011 0 AND
A_B_NOT_C_D_NOT 0 N011 0 LED8 0 0 LED10 0 AND
A§D_NOT N003 0 0 0 0 N009 0 0 BUF
A§B_NOT N001 0 0 0 0 N012 0 0 BUF
.tran 5
.backanno
.end
